Version 4
SHEET 1 1428 680
WIRE 1248 -144 1200 -144
WIRE 1408 -144 1328 -144
WIRE 1200 -48 1200 -144
WIRE 656 -32 592 -32
WIRE -80 0 -80 -48
WIRE 736 32 736 -32
WIRE 752 32 736 32
WIRE 736 64 736 32
WIRE 1200 80 1200 32
WIRE 1200 80 1104 80
WIRE 336 128 272 128
WIRE 608 128 416 128
WIRE 944 128 864 128
WIRE 1008 128 944 128
WIRE 1104 128 1104 80
WIRE 1104 128 1008 128
WIRE -80 144 -80 80
WIRE -48 144 -80 144
WIRE 272 144 272 128
WIRE 272 144 144 144
WIRE 1008 144 1008 128
WIRE 944 160 944 128
WIRE -624 176 -624 128
WIRE -624 176 -640 176
WIRE 1200 176 1200 160
WIRE -720 192 -720 144
WIRE -640 208 -640 176
WIRE -640 208 -688 208
WIRE -752 224 -848 224
WIRE 1008 224 1008 208
WIRE -592 240 -688 240
WIRE -480 240 -592 240
WIRE -272 240 -400 240
WIRE -96 240 -272 240
WIRE -48 240 -96 240
WIRE 224 240 144 240
WIRE 608 240 512 240
WIRE 896 240 864 240
WIRE -272 272 -272 240
WIRE -96 272 -96 240
WIRE 512 272 512 240
WIRE -720 288 -720 256
WIRE 896 304 896 240
WIRE 944 304 944 224
WIRE 944 304 896 304
WIRE 1008 304 944 304
WIRE 736 352 736 304
WIRE -272 384 -272 368
WIRE -96 384 -96 352
WIRE 128 416 128 400
WIRE 272 432 272 400
WIRE -848 448 -848 224
WIRE -752 448 -848 448
WIRE -592 448 -592 240
WIRE -592 448 -672 448
WIRE 128 512 128 496
WIRE 272 512 272 496
FLAG 816 32 COM
FLAG 736 352 COM
FLAG 512 336 COM
FLAG 224 240 COM
FLAG -96 384 0
FLAG -208 320 Vref
FLAG -272 384 0
FLAG -160 -48 0
FLAG 592 -32 COM
FLAG 128 512 0
FLAG 128 400 COM
FLAG 272 512 0
FLAG 272 400 COM
FLAG 1200 176 COM
FLAG 1408 -144 COM
FLAG -624 48 0
FLAG -720 368 0
FLAG -720 64 0
SYMBOL PowerProducts\\LT4430 736 176 R0
SYMATTR InstName U1
SYMBOL cap 928 160 R0
SYMATTR InstName C1
SYMATTR Value 10p
SYMBOL cap 992 144 R0
SYMATTR InstName C2
SYMATTR Value 4.7n
SYMBOL res 992 208 R0
SYMATTR InstName R2
SYMATTR Value 8.2k
SYMBOL cap 816 16 R90
WINDOW 0 0 32 VBottom 2
WINDOW 3 32 32 VTop 2
SYMATTR InstName C3
SYMATTR Value 1µ
SYMBOL cap 496 272 R0
SYMATTR InstName C4
SYMATTR Value 33n
SYMBOL res 432 112 R90
WINDOW 0 0 56 VBottom 2
WINDOW 3 32 56 VTop 2
SYMATTR InstName R3
SYMATTR Value 330
SYMBOL res -384 224 R90
WINDOW 0 0 56 VBottom 2
WINDOW 3 32 56 VTop 2
SYMATTR InstName R4
SYMATTR Value 22k
SYMBOL res -112 256 R0
SYMATTR InstName R5
SYMATTR Value 1.2k
SYMBOL pnp -208 368 R180
SYMATTR InstName Q1
SYMATTR Value BC856B
SYMBOL res -96 -16 R0
SYMATTR InstName R6
SYMATTR Value 220
SYMBOL Optos\\PS2801 48 192 M0
SYMATTR InstName U2
SYMBOL voltage -64 -48 R90
WINDOW 0 -32 56 VBottom 2
WINDOW 3 32 56 VTop 2
WINDOW 123 0 0 Left 0
WINDOW 39 0 0 Left 0
SYMATTR InstName V1
SYMATTR Value 11.5
SYMBOL voltage 752 -32 R90
WINDOW 0 -32 56 VBottom 2
WINDOW 3 32 56 VTop 2
WINDOW 123 0 0 Left 0
WINDOW 39 0 0 Left 0
SYMATTR InstName V2
SYMATTR Value 7.5
SYMBOL res 112 400 R0
SYMATTR InstName R7
SYMATTR Value 99Meg
SYMBOL cap 256 432 R0
SYMATTR InstName C6
SYMATTR Value 2.2nF
SYMBOL res 1184 -64 R0
SYMATTR InstName R1
SYMATTR Value 200k
SYMBOL res 1184 64 R0
SYMATTR InstName R8
SYMATTR Value 27.2k
SYMBOL voltage 1232 -144 R270
WINDOW 0 32 56 VTop 2
WINDOW 3 -32 56 VBottom 2
WINDOW 123 4 56 VTop 2
WINDOW 39 0 0 Left 0
SYMATTR InstName V3
SYMATTR Value ""
SYMATTR Value2 AC 1
SYMBOL Opamps\\UniversalOpamp2 -720 224 R180
SYMATTR InstName U3
SYMBOL voltage -624 144 R180
WINDOW 0 24 96 Left 2
WINDOW 3 24 16 Left 2
WINDOW 123 0 0 Left 0
WINDOW 39 0 0 Left 0
SYMATTR InstName V4
SYMATTR Value 1.23
SYMBOL voltage -720 272 R0
WINDOW 123 0 0 Left 0
WINDOW 39 0 0 Left 0
SYMATTR InstName V5
SYMATTR Value 10
SYMBOL voltage -720 160 R180
WINDOW 0 24 96 Left 2
WINDOW 3 24 16 Left 2
WINDOW 123 0 0 Left 0
WINDOW 39 0 0 Left 0
SYMATTR InstName V6
SYMATTR Value -10
SYMBOL res -656 432 R90
WINDOW 0 0 56 VBottom 2
WINDOW 3 32 56 VTop 2
SYMATTR InstName R9
SYMATTR Value 33k
TEXT 704 416 Left 2 !.ac dec 10 1 1Meg
