Version 4
SHEET 1 3352 1140
WIRE 416 -400 384 -400
WIRE 512 -400 480 -400
WIRE 1520 -400 1520 -448
WIRE -480 -384 -576 -384
WIRE -432 -384 -432 -544
WIRE -432 -384 -480 -384
WIRE -384 -384 -432 -384
WIRE -224 -384 -288 -384
WIRE -208 -384 -224 -384
WIRE -64 -384 -208 -384
WIRE 160 -384 16 -384
WIRE 1104 -384 1104 -432
WIRE 1936 -384 1936 -416
WIRE 384 -368 384 -400
WIRE -480 -336 -480 -384
WIRE -224 -336 -224 -384
WIRE 224 -336 224 -384
WIRE 512 -336 512 -400
WIRE -576 -304 -576 -384
WIRE -336 -304 -336 -320
WIRE -336 -304 -400 -304
WIRE 1520 -288 1520 -320
WIRE 1936 -288 1936 -304
WIRE -400 -272 -400 -304
WIRE -336 -272 -336 -304
WIRE 1104 -272 1104 -304
WIRE -224 -256 -224 -272
WIRE 160 -256 -224 -256
WIRE 224 -256 160 -256
WIRE 512 -240 512 -256
WIRE 512 -240 480 -240
WIRE 160 -224 160 -256
WIRE -576 -208 -576 -240
WIRE 512 -208 176 -208
WIRE 720 -208 560 -208
WIRE 816 -208 720 -208
WIRE -400 -192 -400 -208
WIRE 512 -192 512 -208
WIRE 560 -192 560 -208
WIRE 1488 -192 1472 -192
WIRE 1600 -192 1488 -192
WIRE 1792 -192 1600 -192
WIRE -176 -144 -416 -144
WIRE 176 -144 176 -208
WIRE 176 -144 -176 -144
WIRE 816 -144 816 -208
WIRE 848 -144 816 -144
WIRE 960 -144 928 -144
WIRE 1024 -144 960 -144
WIRE 1104 -144 1024 -144
WIRE 1488 -144 1488 -192
WIRE -176 -128 -176 -144
WIRE 960 -128 960 -144
WIRE 1104 -128 1104 -144
WIRE 1792 -128 1792 -192
WIRE -416 -96 -416 -144
WIRE 560 -96 560 -112
WIRE 656 -96 560 -96
WIRE 656 -80 656 -96
WIRE 1600 -80 1600 -112
WIRE 1632 -80 1600 -80
WIRE 1728 -80 1712 -80
WIRE 176 -64 176 -96
WIRE 176 -64 128 -64
WIRE 816 -64 816 -144
WIRE 816 -48 816 -64
WIRE 1600 -48 1600 -80
WIRE 176 -32 176 -64
WIRE 208 -32 176 -32
WIRE 512 -32 512 -112
WIRE 960 -32 960 -64
WIRE 1104 -32 1104 -48
WIRE 1792 -16 1792 -32
WIRE 1904 -16 1792 -16
WIRE 176 0 176 -32
WIRE 608 0 592 0
WIRE 656 32 656 16
WIRE 880 32 864 32
WIRE -416 48 -416 -16
WIRE -16 48 -416 48
WIRE 464 48 352 48
WIRE -416 64 -416 48
WIRE -304 64 -336 64
WIRE -208 64 -224 64
WIRE 816 64 816 48
WIRE 1600 96 1600 16
WIRE -208 128 -208 64
WIRE -48 128 -48 80
WIRE -48 128 -128 128
WIRE -16 128 -48 128
WIRE 464 128 352 128
WIRE 512 128 512 64
WIRE 512 128 464 128
WIRE 512 144 512 128
WIRE -416 160 -416 144
WIRE -208 208 -208 128
WIRE -48 208 -48 160
WIRE -48 208 -208 208
WIRE -16 208 -48 208
WIRE 384 208 352 208
WIRE 464 208 464 128
WIRE 464 208 384 208
WIRE 1920 224 1904 224
WIRE 384 240 384 208
WIRE 400 240 384 240
WIRE 512 240 512 224
WIRE 1024 256 1024 -144
WIRE 1904 256 1792 256
WIRE 1920 256 1920 224
WIRE 1920 256 1904 256
WIRE -144 288 -176 288
WIRE -16 288 -64 288
WIRE 448 288 352 288
WIRE 1904 288 1904 256
WIRE 2096 320 2032 320
WIRE 1712 352 1712 256
WIRE 1776 352 1712 352
WIRE -160 368 -176 368
WIRE -16 368 -80 368
WIRE 448 368 352 368
WIRE 496 368 448 368
WIRE 1024 368 1024 336
WIRE 1024 384 1024 368
WIRE 2144 384 2032 384
WIRE 2176 384 2144 384
WIRE 2144 400 2144 384
WIRE 1712 432 1712 416
WIRE -112 448 -176 448
WIRE -16 448 -32 448
WIRE 384 448 352 448
WIRE 2048 448 2032 448
WIRE 1424 464 1376 464
WIRE 1504 464 1488 464
WIRE 1024 480 1024 464
WIRE 1680 480 1552 480
WIRE 1776 480 1680 480
WIRE 1504 496 1504 464
WIRE 1552 496 1552 480
WIRE 1680 496 1680 480
WIRE 2080 512 2032 512
WIRE 96 528 96 512
WIRE 256 528 256 512
WIRE 1904 560 1904 544
WIRE 1504 592 1504 576
WIRE 1552 592 1552 576
WIRE 1680 592 1680 576
WIRE 800 736 800 704
WIRE 224 768 224 752
WIRE 1616 768 1616 752
WIRE 1632 768 1616 768
WIRE 368 784 368 752
WIRE 1616 800 1616 768
WIRE -624 864 -672 864
WIRE -560 864 -624 864
WIRE -272 864 -304 864
WIRE -176 864 -272 864
WIRE 224 864 224 848
WIRE 368 864 368 848
WIRE 1216 864 1152 864
WIRE 1488 864 1296 864
WIRE 1824 864 1744 864
WIRE 1888 864 1824 864
WIRE 1984 864 1984 816
WIRE 1984 864 1888 864
WIRE -624 880 -624 864
WIRE -272 880 -272 864
WIRE -176 880 -176 864
WIRE 800 880 800 816
WIRE 832 880 800 880
WIRE 1152 880 1152 864
WIRE 1152 880 1024 880
WIRE 1888 880 1888 864
WIRE 1824 896 1824 864
WIRE -624 960 -624 944
WIRE 1888 960 1888 944
WIRE -432 976 -432 960
WIRE -272 976 -272 944
WIRE -176 976 -176 960
WIRE 400 976 384 976
WIRE 608 976 480 976
WIRE 784 976 608 976
WIRE 832 976 784 976
WIRE 1104 976 1024 976
WIRE 1488 976 1392 976
WIRE 1776 976 1744 976
WIRE 608 1008 608 976
WIRE 784 1008 784 976
WIRE 1392 1008 1392 976
WIRE 1776 1040 1776 976
WIRE 1824 1040 1824 960
WIRE 1824 1040 1776 1040
WIRE 1888 1040 1824 1040
WIRE 1616 1088 1616 1040
WIRE 608 1120 608 1104
WIRE 784 1120 784 1088
FLAG -176 448 0
FLAG -176 368 0
FLAG -176 288 0
FLAG 512 240 0
FLAG 96 528 0
FLAG 256 528 0
FLAG 960 -32 COM
FLAG 1104 -32 COM
FLAG 1024 480 COM
FLAG -416 160 0
FLAG 1936 -288 0
FLAG -176 -144 IN
FLAG 1104 -144 OUT
FLAG 480 -240 IN
FLAG 384 -368 0
FLAG -336 64 0
FLAG -112 80 0
FLAG -112 160 0
FLAG 1904 560 COM
FLAG 1712 432 COM
FLAG 2080 592 COM
FLAG 2144 480 COM
FLAG 2256 384 FWD
FLAG 2096 320 FG
FLAG 2048 448 CG
FLAG 1504 592 0
FLAG 384 448 Sout
FLAG 1376 464 Sout
FLAG 1680 592 COM
FLAG 656 32 COM
FLAG 592 0 FG
FLAG 816 64 COM
FLAG 880 32 CG
FLAG 816 -64 FWD
FLAG 1904 224 VccBias
FLAG 496 368 FB
FLAG 224 864 0
FLAG 224 752 COM
FLAG 368 864 0
FLAG 368 752 COM
FLAG 720 -208 SEC
FLAG 1600 96 COM
FLAG 1488 -80 COM
FLAG 1792 48 COM
FLAG 1904 -16 VccBias
FLAG -400 -192 0
FLAG -576 -208 0
FLAG 160 -224 0
FLAG -432 -544 Vu1
FLAG 272 -32 0
FLAG -336 -192 IN
FLAG -480 -256 IN
FLAG 1408 -192 SEC
FLAG 1552 592 COM
FLAG 176 -96 Vu1
FLAG -48 80 Vref
FLAG 1024 368 VoutDiv
FLAG 1984 816 VoutDiv
FLAG 1616 752 VccBias
FLAG 1696 768 COM
FLAG 1616 1088 COM
FLAG 1392 1072 COM
FLAG 1104 976 COM
FLAG 800 704 Vu1
FLAG 384 976 FB
FLAG 784 1120 0
FLAG 672 1056 Vref
FLAG 608 1120 0
FLAG 1104 -272 0
FLAG 1104 -432 Current
FLAG 464 240 0
FLAG 1520 -288 0
FLAG 1936 -416 IN
FLAG -432 976 0
FLAG -624 960 0
FLAG -208 -384 Vreg
FLAG -672 864 Vreg
FLAG -272 976 0
FLAG -176 976 0
SYMBOL res -16 432 R90
WINDOW 0 0 56 VBottom 2
WINDOW 3 32 56 VTop 2
SYMATTR InstName R13
SYMATTR Value 200k
SYMBOL res -64 352 R90
WINDOW 0 0 56 VBottom 2
WINDOW 3 32 56 VTop 2
SYMATTR InstName Rdelay
SYMATTR Value 100k
SYMBOL res -48 272 R90
WINDOW 0 0 56 VBottom 2
WINDOW 3 32 56 VTop 2
SYMATTR InstName Rosc
SYMATTR Value 301k
SYMBOL res -112 144 M270
WINDOW 0 32 56 VTop 2
WINDOW 3 0 56 VBottom 2
SYMATTR InstName Rt
SYMATTR Value 11k
SYMBOL res 496 128 R0
SYMATTR InstName Rs
SYMATTR Value 10m
SYMATTR SpiceLine tol=1 pwr=1
SYMBOL ind2 528 -96 R180
WINDOW 0 36 80 Left 2
WINDOW 3 36 40 Left 2
SYMATTR InstName L1
SYMATTR Value 290µ
SYMATTR Type ind
SYMATTR SpiceLine Rser=13m
SYMBOL ind2 544 -96 M180
WINDOW 0 36 80 Left 2
WINDOW 3 36 40 Left 2
SYMATTR InstName L2
SYMATTR Value 46.4µ
SYMATTR Type ind
SYMATTR SpiceLine Rser=7m
SYMBOL ind 832 -128 R270
WINDOW 0 32 56 VTop 2
WINDOW 3 5 56 VBottom 2
SYMATTR InstName L5
SYMATTR Value 10µ
SYMATTR SpiceLine Rser=6.33m
SYMBOL cap 944 -128 R0
SYMATTR InstName C2
SYMATTR Value 660µ
SYMATTR SpiceLine Rser=17.67m
SYMBOL res 1008 240 R0
SYMATTR InstName R7
SYMATTR Value 200k
SYMBOL res 1008 368 R0
SYMATTR InstName R8
SYMATTR Value 27.2k
SYMBOL res -432 0 M180
WINDOW 0 36 76 Left 2
WINDOW 3 36 40 Left 2
SYMATTR InstName R1
SYMATTR Value 240k
SYMBOL res -432 160 M180
WINDOW 0 36 76 Left 2
WINDOW 3 36 40 Left 2
SYMATTR InstName R2
SYMATTR Value {240K/24}
SYMBOL voltage 1936 -400 R0
WINDOW 39 0 0 Left 0
SYMATTR Value2 AC 0
SYMATTR InstName V1
SYMATTR Value 60
SYMBOL PowerProducts\\LT1952-1 176 240 R0
SYMATTR InstName U1
SYMBOL res 1088 -144 R0
SYMATTR InstName Rload
SYMATTR Value R={5/8}
SYMBOL ind2 208 -240 M180
WINDOW 0 36 80 Left 2
WINDOW 3 36 40 Left 2
SYMATTR InstName L4
SYMATTR Value 72.5µ
SYMATTR Type ind
SYMATTR SpiceLine Rser=10m
SYMBOL ind2 528 -240 R180
WINDOW 0 36 80 Left 2
WINDOW 3 36 40 Left 2
SYMATTR InstName L3
SYMATTR Value 290µ
SYMATTR Type ind
SYMATTR SpiceLine Rser=16m
SYMBOL res -208 48 R90
WINDOW 0 0 56 VBottom 2
WINDOW 3 32 56 VTop 2
SYMATTR InstName Rb
SYMATTR Value 12.4k
SYMBOL cap -48 64 R90
WINDOW 0 0 32 VBottom 2
WINDOW 3 32 32 VTop 2
SYMATTR InstName C3
SYMATTR Value 0.1µ
SYMBOL cap -48 144 R90
WINDOW 0 0 32 VBottom 2
WINDOW 3 32 32 VTop 2
SYMATTR InstName C4
SYMATTR Value 0.22µ
SYMBOL PowerProducts\\LTC3900 1904 400 R0
SYMATTR InstName U2
SYMBOL res 1808 240 R90
WINDOW 0 0 56 VBottom 2
WINDOW 3 32 56 VTop 2
SYMATTR InstName Rtmr
SYMATTR Value 90.9k
SYMBOL cap 1696 352 R0
SYMATTR InstName Ctmr
SYMATTR Value 0.47n
SYMBOL res 2272 368 R90
WINDOW 0 0 56 VBottom 2
WINDOW 3 32 56 VTop 2
SYMATTR InstName Rcs1
SYMATTR Value 365
SYMBOL res 2160 496 R180
WINDOW 0 36 76 Left 2
WINDOW 3 36 40 Left 2
SYMATTR InstName Rcs2
SYMATTR Value 360
SYMBOL res 2096 608 R180
WINDOW 0 36 76 Left 2
WINDOW 3 36 40 Left 2
SYMATTR InstName Rcs3
SYMATTR Value 182
SYMBOL ind2 1520 592 R180
WINDOW 0 36 80 Left 2
WINDOW 3 36 40 Left 2
SYMATTR InstName L6
SYMATTR Value 300µ
SYMATTR Type ind
SYMATTR SpiceLine Rser=13m
SYMBOL ind2 1568 480 M0
SYMATTR InstName L7
SYMATTR Value 300µ
SYMATTR Type ind
SYMATTR SpiceLine Rser=7m
SYMBOL cap 1488 448 R90
WINDOW 0 0 32 VBottom 2
WINDOW 3 32 32 VTop 2
SYMATTR InstName C5
SYMATTR Value 220pF
SYMBOL res 1696 592 R180
WINDOW 0 36 76 Left 2
WINDOW 3 36 40 Left 2
SYMATTR InstName R3
SYMATTR Value 560
SYMBOL nmos 608 -80 R0
SYMATTR InstName M1
SYMATTR Value HAT2266
SYMBOL nmos 864 -48 M0
SYMATTR InstName M2
SYMATTR Value HAT2266
SYMBOL res 208 752 R0
SYMATTR InstName R11
SYMATTR Value 99Meg
SYMBOL nmos 464 -32 R0
SYMATTR InstName M3
SYMBOL schottky 1408 -176 R270
WINDOW 0 32 32 VTop 2
WINDOW 3 0 32 VBottom 2
SYMATTR InstName D1
SYMATTR Value MBR0540
SYMATTR Description Diode
SYMATTR Type diode
SYMBOL cap 1472 -144 R0
SYMATTR InstName C6
SYMATTR Value 0.1µ
SYMBOL res 1584 -208 R0
SYMATTR InstName R12
SYMATTR Value 2k
SYMBOL zener 1616 16 R180
WINDOW 0 24 64 Left 2
WINDOW 3 24 0 Left 2
SYMATTR InstName D2
SYMATTR Value KDZ7_5B
SYMATTR Description Diode
SYMATTR Type diode
SYMBOL res 1728 -96 R90
WINDOW 0 0 56 VBottom 2
WINDOW 3 32 56 VTop 2
SYMATTR InstName R14
SYMATTR Value 10
SYMBOL npn 1728 -128 R0
SYMATTR InstName Q1
SYMATTR Value 2SCR513P
SYMBOL cap 1776 -16 R0
SYMATTR InstName C7
SYMATTR Value 4.7µ
SYMBOL diode 416 -384 R270
WINDOW 0 32 32 VTop 2
WINDOW 3 0 32 VBottom 2
SYMATTR InstName D3
SYMBOL diode 224 -400 R90
WINDOW 0 0 32 VBottom 2
WINDOW 3 32 32 VTop 2
SYMATTR InstName D4
SYMATTR Value BAS16HM
SYMBOL cap -240 -336 R0
SYMATTR InstName C8
SYMATTR Value 33µ
SYMBOL npn -288 -320 M270
SYMATTR InstName Q2
SYMATTR Value 2SCR513P
SYMBOL res -496 -352 R0
SYMATTR InstName R15
SYMATTR Value 47k
SYMBOL res -352 -288 R0
SYMATTR InstName R16
SYMATTR Value 82k
SYMBOL zener -384 -208 R180
WINDOW 0 24 64 Left 2
WINDOW 3 24 0 Left 2
SYMATTR InstName D5
SYMATTR Value UMZ13K
SYMATTR Description Diode
SYMATTR Type diode
SYMBOL zener -560 -240 R180
WINDOW 0 24 64 Left 2
WINDOW 3 24 0 Left 2
SYMATTR InstName D6
SYMATTR Value EDZV18B
SYMATTR Description Diode
SYMATTR Type diode
SYMBOL cap 272 -48 R90
WINDOW 0 0 32 VBottom 2
WINDOW 3 32 32 VTop 2
SYMATTR InstName C9
SYMATTR Value 100µF
SYMATTR SpiceLine IC={-12.3}
SYMBOL PowerProducts\\LT4430 1616 912 R0
SYMATTR InstName U4
SYMBOL cap 1808 896 R0
SYMATTR InstName C1
SYMATTR Value 10p
SYMBOL cap 1872 880 R0
SYMATTR InstName C10
SYMATTR Value 4.7n
SYMBOL res 1872 944 R0
SYMATTR InstName R4
SYMATTR Value 8.2k
SYMBOL cap 1696 752 R90
WINDOW 0 0 32 VBottom 2
WINDOW 3 32 32 VTop 2
SYMATTR InstName C11
SYMATTR Value 1µ
SYMBOL cap 1376 1008 R0
SYMATTR InstName C12
SYMATTR Value 33n
SYMBOL res 1312 848 R90
WINDOW 0 0 56 VBottom 2
WINDOW 3 32 56 VTop 2
SYMATTR InstName R6
SYMATTR Value 330
SYMBOL res 496 960 R90
WINDOW 0 0 56 VBottom 2
WINDOW 3 32 56 VTop 2
SYMATTR InstName R9
SYMATTR Value 22k
SYMBOL res 432 272 R0
SYMATTR InstName R10
SYMATTR Value 33k
SYMBOL res 768 992 R0
SYMATTR InstName R17
SYMATTR Value 1.2k
SYMBOL pnp 672 1104 R180
SYMATTR InstName Q3
SYMATTR Value BC856B
SYMBOL cap 352 784 R0
SYMATTR InstName C13
SYMATTR Value 2.2nF
SYMBOL res 784 720 R0
SYMATTR InstName R18
SYMATTR Value 220
SYMBOL voltage 1104 -400 R0
WINDOW 123 0 0 Left 0
WINDOW 39 0 0 Left 0
SYMATTR InstName V2
SYMATTR Value PULSE(8 0.8 6m 1u 1u 6m 12m)
SYMBOL cap 464 224 R90
WINDOW 0 0 32 VBottom 2
WINDOW 3 32 32 VTop 2
SYMATTR InstName C14
SYMATTR Value 10p
SYMBOL Optos\\PS2801 928 928 M0
SYMATTR InstName U3
SYMBOL voltage 1520 -416 R0
WINDOW 123 0 0 Left 0
WINDOW 39 0 0 Left 0
SYMATTR InstName V3
SYMATTR Value PULSE(36 60 6m 1u 1u 6m 12m)
SYMBOL PowerProducts\\LT1086-12 -432 864 R0
SYMATTR InstName U5
SYMBOL cap -640 880 R0
SYMATTR InstName C15
SYMATTR Value 10µ
SYMBOL cap -288 880 R0
SYMATTR InstName C16
SYMATTR Value 1µ
SYMBOL res -192 864 R0
SYMATTR InstName R20
SYMATTR Value 40
SYMBOL res 32 -400 R90
WINDOW 0 0 56 VBottom 2
WINDOW 3 32 56 VTop 2
SYMATTR InstName R5
SYMATTR Value 0
TEXT -992 -120 Left 2 !.tran 0 1500m 0 1e-7 startup
TEXT -984 -472 Left 2 !K1 L1 L2 1\nK2 L1 L3 1\nK3 L1 L4 1\nK4 L2 L3 1\nK5 L2 L4 1\nK6 L3 L4 1\nK7 L6 L7 1
TEXT -984 -248 Left 2 ;L1 - Primer\nL2 - Seconder\nL3 - Aux\nL4 - Reset
TEXT -656 -656 Left 2 !.model HAT2266 VDMOS(Rg=0.5 Vto=2.3 Rd=4m Rs=1m Rb=5m Kp=70 lambda=.05 Cgdmax=0.65n Cgdmin=.08n Cgs=3.455n Cjo=1.2n Is=120p ksubthres=.1 mfg=Furkan Vds=60 Ron=12m Qg=25n)
TEXT -656 -624 Left 2 !.model NMOS VDMOS(Rg=3 Rd=1.2m Rs=.9m Vto=1.2 Kp=50 Cgdmax=2n Cgdmin=.25n Cgs=3.3n Cjo=1n Is=100p Rb=1.5m ksubthres=.1 mfg=Siliconix Vds=20 Ron=3m Qg=50n)
