Version 4
SHEET 1 1304 1140
WIRE 416 -400 384 -400
WIRE 512 -400 480 -400
WIRE 384 -368 384 -400
WIRE 512 -336 512 -400
WIRE 512 -240 512 -256
WIRE 512 -240 480 -240
WIRE 512 -208 176 -208
WIRE 656 -208 560 -208
WIRE 512 -192 512 -208
WIRE 560 -192 560 -208
WIRE -176 -144 -416 -144
WIRE 176 -144 176 -208
WIRE 176 -144 -176 -144
WIRE 656 -144 656 -208
WIRE 768 -144 720 -144
WIRE 848 -144 768 -144
WIRE 960 -144 928 -144
WIRE 1024 -144 960 -144
WIRE 1104 -144 1024 -144
WIRE -176 -128 -176 -144
WIRE 768 -128 768 -144
WIRE 960 -128 960 -144
WIRE 1104 -128 1104 -144
WIRE -416 -96 -416 -144
WIRE 560 -96 560 -112
WIRE -176 -32 -176 -48
WIRE 512 -32 512 -112
WIRE 768 -32 768 -64
WIRE 960 -32 960 -64
WIRE 1104 -32 1104 -48
WIRE 176 0 176 -144
WIRE -416 48 -416 -16
WIRE -16 48 -416 48
WIRE 464 48 352 48
WIRE -416 64 -416 48
WIRE -304 64 -336 64
WIRE -208 64 -224 64
WIRE -208 128 -208 64
WIRE -48 128 -48 80
WIRE -48 128 -128 128
WIRE -16 128 -48 128
WIRE 464 128 352 128
WIRE 512 128 512 64
WIRE 512 128 464 128
WIRE 512 144 512 128
WIRE -416 160 -416 144
WIRE -448 208 -496 208
WIRE -208 208 -208 128
WIRE -208 208 -368 208
WIRE -48 208 -48 160
WIRE -48 208 -208 208
WIRE -16 208 -48 208
WIRE 368 208 352 208
WIRE 464 208 464 128
WIRE 464 208 448 208
WIRE 512 240 512 224
WIRE 1024 256 1024 -144
WIRE -112 288 -176 288
WIRE -16 288 -32 288
WIRE 368 288 352 288
WIRE 464 288 448 288
WIRE -160 368 -176 368
WIRE -16 368 -80 368
WIRE 464 368 464 352
WIRE 464 368 352 368
WIRE 1024 368 1024 336
WIRE 1024 368 464 368
WIRE 1024 384 1024 368
WIRE -112 448 -176 448
WIRE -16 448 -32 448
WIRE 384 448 352 448
WIRE 1024 480 1024 464
WIRE 96 528 96 512
WIRE 256 528 256 512
FLAG -176 448 0
FLAG -176 368 0
FLAG -176 288 0
FLAG 512 240 0
FLAG 96 528 0
FLAG 256 528 0
FLAG 960 -32 0
FLAG 768 -32 0
FLAG 560 -96 0
FLAG 1104 -32 0
FLAG 1024 480 0
FLAG -416 160 0
FLAG -176 -32 0
FLAG -176 -144 IN
FLAG 1104 -144 OUT
FLAG 480 -240 IN
FLAG 384 -368 0
FLAG -496 208 IN
FLAG -336 64 0
FLAG -112 80 0
FLAG -112 160 0
SYMBOL res -16 432 R90
WINDOW 0 0 56 VBottom 2
WINDOW 3 32 56 VTop 2
SYMATTR InstName R1
SYMATTR Value 40K
SYMBOL res -64 352 R90
WINDOW 0 0 56 VBottom 2
WINDOW 3 32 56 VTop 2
SYMATTR InstName Rdelay
SYMATTR Value 100k
SYMBOL res -16 272 R90
WINDOW 0 0 56 VBottom 2
WINDOW 3 32 56 VTop 2
SYMATTR InstName Rosc
SYMATTR Value 301k
SYMBOL res -112 144 M270
WINDOW 0 32 56 VTop 2
WINDOW 3 0 56 VBottom 2
SYMATTR InstName Rt
SYMATTR Value 11k
SYMBOL res 496 128 R0
SYMATTR InstName R5
SYMATTR Value 10m
SYMBOL nmos 464 -32 R0
SYMATTR InstName Q1
SYMATTR Value Si7868DP
SYMBOL cap 448 352 M180
WINDOW 0 31 53 Left 2
WINDOW 3 24 8 Left 2
SYMATTR InstName C1
SYMATTR Value .002µ
SYMBOL res 464 272 R90
WINDOW 0 0 56 VBottom 2
WINDOW 3 32 56 VTop 2
SYMATTR InstName R6
SYMATTR Value 4.7K
SYMBOL ind2 528 -96 R180
WINDOW 0 36 80 Left 2
WINDOW 3 36 40 Left 2
SYMATTR InstName L1
SYMATTR Value 290µ
SYMATTR Type ind
SYMATTR SpiceLine Rser=13m
SYMBOL ind2 544 -96 M180
WINDOW 0 36 80 Left 2
WINDOW 3 36 40 Left 2
SYMATTR InstName L2
SYMATTR Value 46.4µ
SYMATTR Type ind
SYMATTR SpiceLine Rser=7m
SYMBOL diode 656 -128 R270
WINDOW 0 32 32 VTop 2
WINDOW 3 0 32 VBottom 2
SYMATTR InstName D1
SYMATTR Value MURS120
SYMBOL diode 752 -64 M180
WINDOW 0 32 57 Left 2
WINDOW 3 24 0 Left 2
SYMATTR InstName D2
SYMATTR Value MURS120
SYMBOL ind 832 -128 R270
WINDOW 0 32 56 VTop 2
WINDOW 3 5 56 VBottom 2
SYMATTR InstName L5
SYMATTR Value 4µ
SYMATTR SpiceLine Rpar=1K
SYMBOL cap 944 -128 R0
SYMATTR InstName C2
SYMATTR Value 20µ
SYMATTR SpiceLine Rser=10m
SYMBOL res 1008 240 R0
SYMATTR InstName R7
SYMATTR Value 43.7K
SYMBOL res 1008 368 R0
SYMATTR InstName R8
SYMATTR Value 4.99K
SYMBOL res -432 0 M180
WINDOW 0 36 76 Left 2
WINDOW 3 36 40 Left 2
SYMATTR InstName R1
SYMATTR Value 240k
SYMBOL res -432 160 M180
WINDOW 0 36 76 Left 2
WINDOW 3 36 40 Left 2
SYMATTR InstName R2
SYMATTR Value {240K/24}
SYMBOL voltage -176 -144 R0
WINDOW 123 0 0 Left 0
WINDOW 39 0 0 Left 0
SYMATTR InstName V1
SYMATTR Value 48
SYMBOL res 464 224 M270
WINDOW 0 32 56 VTop 2
WINDOW 3 0 56 VBottom 2
SYMATTR InstName R11
SYMATTR Value 1K
SYMBOL PowerProducts\\LT1952-1 176 240 R0
SYMATTR InstName U1
SYMBOL res 1088 -144 R0
SYMATTR InstName Rload
SYMATTR Value 2
SYMBOL ind2 544 -240 M180
WINDOW 0 36 80 Left 2
WINDOW 3 36 40 Left 2
SYMATTR InstName L4
SYMATTR Value 72.5µ
SYMATTR Type ind
SYMATTR SpiceLine Rser=10m
SYMBOL ind2 528 -240 R180
WINDOW 0 36 80 Left 2
WINDOW 3 36 40 Left 2
SYMATTR InstName L3
SYMATTR Value 290µ
SYMATTR Type ind
SYMATTR SpiceLine Rser=16m
SYMBOL diode 416 -384 R270
WINDOW 0 32 32 VTop 2
WINDOW 3 0 32 VBottom 2
SYMATTR InstName D4
SYMATTR Value RF2001NS3D
SYMBOL res -352 192 R90
WINDOW 0 0 56 VBottom 2
WINDOW 3 32 56 VTop 2
SYMATTR InstName Rx
SYMATTR Value 1.37Meg
SYMBOL res -208 48 R90
WINDOW 0 0 56 VBottom 2
WINDOW 3 32 56 VTop 2
SYMATTR InstName Rb
SYMATTR Value 5.76k
SYMBOL cap -48 64 R90
WINDOW 0 0 32 VBottom 2
WINDOW 3 32 32 VTop 2
SYMATTR InstName C3
SYMATTR Value 0.1µ
SYMBOL cap -48 144 R90
WINDOW 0 0 32 VBottom 2
WINDOW 3 32 32 VTop 2
SYMATTR InstName C4
SYMATTR Value 0.22µ
TEXT 464 424 Left 2 !.tran 1.2m startup
TEXT -656 -440 Left 2 !K1 L1 L2 0.99655\nK2 L1 L3 0.99655\nK3 L1 L4 0.99655\nK4 L2 L3 0.99655\nK5 L2 L4 0.99655\nK6 L3 L4 0.99655
TEXT -656 -264 Left 2 ;L1 - Primer\nL2 - Seconder\nL3 - Aux\nL4 - Reset
